powerflow/autotest/test_unbalanced_stepup_D-grY_NR.glm
// $Id: unbalanced_stepup_D-grY.glm 1199 2009-01-07 22:32:40Z d3m998 $
//	Copyright (C) 2008 Battelle Memorial Institute
// Unbalanced step-up delta-grY

clock {
	timestamp '2000-01-01 0:00:00';
	timezone EST+5EDT;
}

//#define stylesheet="C:\Users\Jason\Documents\GridLAB-D\trunk\VS2005\gridlabd-2_0";
#set relax_naming_rules=1
module powerflow { solver_method NR; };
module assert;

object overhead_line_conductor:100 {
	geometric_mean_radius 0.0244;
	resistance 0.306;
}

object overhead_line_conductor:101 {
	geometric_mean_radius 0.00814;
	resistance 0.592;
}

object line_spacing:200 {
	distance_AB 2.5;
	distance_BC 4.5;
	distance_AC 7.0;
	distance_AN 5.656854;
	distance_BN 4.272002;
	distance_CN 5.0;
}

object line_configuration:300 {
	conductor_A overhead_line_conductor:100;
	conductor_B overhead_line_conductor:100;
	conductor_C overhead_line_conductor:100;
	conductor_N overhead_line_conductor:101;
	spacing line_spacing:200;
}

object transformer_configuration:400 {
	connect_type DELTA_GWYE;
	power_rating 6000;
	primary_voltage 12470;
	secondary_voltage 24900;
	resistance 0.01;
	reactance 0.06;
}

object node:1 {
	phases "ABCD";
	voltage_A +7199.558+0.000j;
	voltage_B -3599.779-6235.000j;
	voltage_C -3599.779+6235.000j;
	bustype SWING;
	nominal_voltage 7200;
}

object overhead_line:12 {
	phases "ABCD";
	from node:1;
	to node:2;
	length 2000;
	configuration line_configuration:300;
	object complex_assert {
		target current_in_A;
		within 10;
		value 309.3-35.2d;
	};
	object complex_assert {
		target current_in_B;
		within 10;
		value 249.5-146.5d;
	};
	object complex_assert {
		target current_in_C;
		within 10;
		value 319.3+98.1d;
	};
}

object node:2 {
	phases "ABCD";
	voltage_A +7199.558+0.000j;
	voltage_B -3599.779-6235.000j;
	voltage_C -3599.779+6235.000j;
	nominal_voltage 7200;
	object complex_assert {
		target voltage_AB;
		within 10;
		value 12364+29.8d;
	};
	object complex_assert {
		target voltage_BC;
		within 10;
		value 12391-90.5d;
	};
	object complex_assert {
		target voltage_CA;
		within 10;
		value 12333+149.6d;
	};
}

object transformer:23 {
	phases "ABCN";
	from node:2;
	to node:3;
	configuration transformer_configuration:400;
}

object node:3 {
	phases "ABCN";
	voltage_A +14376.022+0.000j;
	voltage_B -7188.011-12450.000j;
	voltage_C -7188.011+12450.000j;
	nominal_voltage 14376;
	object complex_assert {
		target voltage_A;
		within 10;
		value 13792+27.7d;
	};
	object complex_assert {
		target voltage_B;
		within 10;
		value 13733-93.5d;
	};
	object complex_assert {
		target voltage_C;
		within 10;
		value 13641+145.4d;
	};
}

object overhead_line:34 {
	phases "ABCN";
	from node:3;
	to load:4;
	length 2500;
	configuration line_configuration:300;
	object complex_assert {
		target current_in_A;
		within 10;
		value 109.0-4.1d;
	};
	object complex_assert {
		target current_in_B;
		within 10;
		value 146.2-119.4d;
	};
	object complex_assert {
		target current_in_C;
		within 10;
		value 183.8+127.0d;
	};
}

object load:4 {
	phases "ABCN";
	voltage_A +14376.022+0.000j;
	voltage_B -7188.011-12450.000j;
	voltage_C -7188.011+12450.000j;
	constant_power_A +1275000.000+790174.031j;
	constant_power_B +1800000.000+871779.789j;
	constant_power_C +2375000.000+780624.750j;
	nominal_voltage 14376;
	object complex_assert {
		target voltage_A;
		within 11;
		value 13768+27.7d;
	};
	object complex_assert {
		target voltage_B;
		within 11.5;
		value 13684-93.6d;
	};
	object complex_assert {
		target voltage_C;
		within 11;
		value 13600+145.2d;
	};
}

